! B3LYP D3 def2-TZVP(-f) def2/J RIJCOSX opt freq tightSCF noautostart miniprint nopop
%maxcore  1500
%pal nprocs   8 end
! CPCM(DMF)
* xyz   0   1
S      4.83650000    9.04700000    8.33740000
F      1.09040000    6.83480000    7.09430000
O      2.43790000    8.60150000    3.60820000
O     -2.61100000    5.24410000    4.73950000
C      0.43500000    6.73230000    5.92990000
C     -0.71950000    6.01410000    5.96920000
H     -1.05740000    5.55360000    6.89640000
C     -1.43900000    5.88590000    4.83080000
C     -0.98050000    6.45300000    3.67110000
H     -1.55060000    6.34880000    2.74910000
C      0.17520000    7.14090000    3.67440000
H      0.52430000    7.57460000    2.73850000
C      0.93990000    7.32110000    4.80970000
C      2.15200000    8.14450000    4.68600000
C      2.99780000    8.44190000    5.82670000
H      2.69340000    8.10870000    6.81770000
C      4.11670000    9.10210000    5.68830000
H      4.37170000    9.40730000    4.67450000
C      5.04190000    9.46850000    6.70490000
C      6.17800000   10.17580000    6.55100000
H      6.51640000   10.54490000    5.58390000
C      6.88430000   10.39460000    7.73100000
C      6.25950000    9.83240000    8.77220000
H      6.63300000    9.87900000    9.79400000
C     -3.14480000    4.63690000    5.89590000
H     -4.11320000    4.19760000    5.66090000
H     -3.26620000    5.38580000    6.67710000
H     -2.46800000    3.85730000    6.24240000
C      8.13880000   11.17090000    7.81510000
H      8.75310000   10.96380000    6.94000000
H      8.68180000   10.88680000    8.71520000
H      7.90560000   12.23400000    7.85180000
 *
