32
Coordinates from ORCA-job a E -1227.734960210868
  S       4.836500      9.047000      8.337400
  F       1.090400      6.834800      7.094300
  O       2.437900      8.601500      3.608200
  O      -2.611000      5.244100      4.739500
  C       0.435000      6.732300      5.929900
  C      -0.719500      6.014100      5.969200
  H      -1.057400      5.553600      6.896400
  C      -1.439000      5.885900      4.830800
  C      -0.980500      6.453000      3.671100
  H      -1.550600      6.348800      2.749100
  C       0.175200      7.140900      3.674400
  H       0.524300      7.574600      2.738500
  C       0.939900      7.321100      4.809700
  C       2.152000      8.144500      4.686000
  C       2.997800      8.441900      5.826700
  H       2.693400      8.108700      6.817700
  C       4.116700      9.102100      5.688300
  H       4.371700      9.407300      4.674500
  C       5.041900      9.468500      6.704900
  C       6.178000     10.175800      6.551000
  H       6.516400     10.544900      5.583900
  C       6.884300     10.394600      7.731000
  C       6.259500      9.832400      8.772200
  H       6.633000      9.879000      9.794000
  C      -3.144800      4.636900      5.895900
  H      -4.113200      4.197600      5.660900
  H      -3.266200      5.385800      6.677100
  H      -2.468000      3.857300      6.242400
  C       8.138800     11.170900      7.815100
  H       8.753100     10.963800      6.940000
  H       8.681800     10.886800      8.715200
  H       7.905600     12.234000      7.851800
32
Coordinates from ORCA-job a E -1227.751288466799
  S       4.861638      9.064116      8.365515
  F       1.075871      6.802232      7.114262
  O       2.441363      8.591443      3.548974
  O      -2.676086      5.201849      4.732744
  C       0.413423      6.716661      5.937131
  C      -0.760182      5.993073      5.976615
  H      -1.081486      5.540345      6.903003
  C      -1.501303      5.859814      4.817370
  C      -1.035274      6.436976      3.635566
  H      -1.607016      6.329425      2.722286
  C       0.138369      7.138062      3.638749
  H       0.487630      7.577000      2.713602
  C       0.918056      7.319556      4.792428
  C       2.149004      8.148880      4.656016
  C       3.004169      8.446285      5.814378
  H       2.692335      8.117703      6.794293
  C       4.151360      9.117359      5.677299
  H       4.421947      9.427177      4.670739
  C       5.076965      9.485645      6.707967
  C       6.232359     10.206374      6.550246
  H       6.567506     10.571527      5.586259
  C       6.944879     10.427490      7.751786
  C       6.303109      9.851745      8.810667
  H       6.656298      9.884068      9.831652
  C      -3.211455      4.589601      5.901208
  H      -4.166427      4.146642      5.632558
  H      -3.365979      5.333048      6.686661
  H      -2.539317      3.808490      6.264815
  C       8.216325     11.213151      7.844108
  H       8.845634     11.013136      6.976228
  H       8.763499     10.943144      8.747267
  H       7.995786     12.282484      7.874708
32
Coordinates from ORCA-job a E -1227.752992299304
  S       4.854722      9.034509      8.368452
  F       1.119829      6.760333      7.089708
  O       2.469829      8.556567      3.505823
  O      -2.695082      5.216867      4.749457
  C       0.433054      6.700211      5.920569
  C      -0.753894      5.991046      5.973258
  H      -1.058524      5.540820      6.905215
  C      -1.518153      5.872145      4.815461
  C      -1.062256      6.456932      3.624199
  H      -1.651292      6.359286      2.722695
  C       0.124013      7.150825      3.616880
  H       0.468119      7.601468      2.697613
  C       0.925198      7.311223      4.766509
  C       2.172177      8.118611      4.620873
  C       3.013991      8.412492      5.789871
  H       2.691815      8.076324      6.762555
  C       4.165159      9.099180      5.658639
  H       4.446928      9.420514      4.660262
  C       5.077466      9.469085      6.700413
  C       6.233038     10.206125      6.548990
  H       6.565295     10.575940      5.587894
  C       6.937119     10.432677      7.761510
  C       6.293120      9.845413      8.823908
  H       6.627089      9.868434      9.849734
  C      -3.204149      4.606344      5.937636
  H      -4.157370      4.161451      5.666954
  H      -3.358655      5.349647      6.722988
  H      -2.526017      3.828292      6.295757
  C       8.203423     11.233882      7.865102
  H       8.851186     11.039168      7.009386
  H       8.746175     10.985222      8.777006
  H       7.979647     12.303467      7.881782
32
Coordinates from ORCA-job a E -1227.753279011826
  S       4.849560      9.057324      8.386657
  F       1.127005      6.699906      7.094327
  O       2.504829      8.497532      3.510266
  O      -2.705936      5.228836      4.739198
  C       0.433787      6.677194      5.927011
  C      -0.758549      5.975977      5.971494
  H      -1.057257      5.514716      6.899778
  C      -1.528638      5.881194      4.811981
  C      -1.073663      6.486444      3.629351
  H      -1.669107      6.406581      2.730291
  C       0.117655      7.174121      3.631021
  H       0.464446      7.644338      2.722504
  C       0.924352      7.308961      4.780804
  C       2.179010      8.105875      4.636474
  C       3.014465      8.404817      5.805987
  H       2.684625      8.083089      6.779338
  C       4.170709      9.087734      5.666078
  H       4.460489      9.397694      4.666989
  C       5.077806      9.467790      6.706277
  C       6.235262     10.203223      6.546693
  H       6.565741     10.558959      5.579928
  C       6.939920     10.443594      7.756718
  C       6.297674      9.870592      8.828922
  H       6.623442      9.896566      9.857245
  C      -3.211438      4.599927      5.923314
  H      -4.159747      4.154507      5.636105
  H      -3.374519      5.332637      6.715998
  H      -2.529478      3.822085      6.272355
  C       8.208262     11.242234      7.850140
  H       8.865247     11.025199      7.006638
  H       8.744419     11.021090      8.772950
  H       7.992625     12.313764      7.834268
32
Coordinates from ORCA-job a E -1227.753417874851
  S       4.849985      9.063445      8.400357
  F       1.183736      6.568305      7.067924
  O       2.548500      8.427367      3.511072
  O      -2.735147      5.286991      4.744701
  C       0.463427      6.612940      5.917604
  C      -0.745919      5.942449      5.962748
  H      -1.032168      5.458625      6.883467
  C      -1.542456      5.909488      4.816438
  C      -1.097323      6.548901      3.648528
  H      -1.716657      6.516979      2.762402
  C       0.112060      7.203928      3.649471
  H       0.456569      7.701605      2.754493
  C       0.946638      7.273143      4.784288
  C       2.224645      8.030745      4.636650
  C       3.041182      8.350958      5.810593
  H       2.702988      8.038595      6.784040
  C       4.190640      9.047556      5.668669
  H       4.488525      9.348246      4.669585
  C       5.082746      9.451601      6.710169
  C       6.233281     10.196774      6.546190
  H       6.562393     10.539003      5.573928
  C       6.928642     10.465648      7.754573
  C       6.289716      9.906144      8.834058
  H       6.599556      9.945323      9.866986
  C      -3.231438      4.623692      5.917257
  H      -4.189606      4.204299      5.623252
  H      -3.371651      5.332105      6.735223
  H      -2.555407      3.825121      6.226739
  C       8.186981     11.278182      7.840128
  H       8.863707     11.037047      7.018668
  H       8.709208     11.102274      8.780469
  H       7.965646     12.347018      7.776431
32
Coordinates from ORCA-job a E -1227.753652941984
  S       4.811504      9.100875      8.403403
  F       1.220724      6.560076      7.038605
  O       2.572586      8.395744      3.490919
  O      -2.732382      5.296542      4.760764
  C       0.479815      6.612296      5.902065
  C      -0.726948      5.939388      5.957549
  H      -0.997309      5.445425      6.878038
  C      -1.539610      5.919426      4.823644
  C      -1.113431      6.575098      3.658944
  H      -1.747988      6.554256      2.783055
  C       0.095439      7.228644      3.648739
  H       0.428974      7.736598      2.755246
  C       0.946093      7.283308      4.770826
  C       2.226520      8.033699      4.620647
  C       3.029584      8.365197      5.799629
  H       2.673781      8.070852      6.774061
  C       4.187261      9.046638      5.662884
  H       4.503375      9.326553      4.663410
  C       5.069622      9.456882      6.709580
  C       6.232645     10.180316      6.548466
  H       6.578406     10.498766      5.573578
  C       6.917034     10.461245      7.758985
  C       6.257472      9.933973      8.839259
  H       6.549449      9.984901      9.876986
  C      -3.209576      4.611423      5.929278
  H      -4.169918      4.192092      5.642646
  H      -3.339409      5.307619      6.759262
  H      -2.523999      3.812169      6.214639
  C       8.186227     11.254219      7.844528
  H       8.878161     10.971268      7.049252
  H       8.682945     11.105469      8.803168
  H       7.985948     12.323547      7.735043
32
Coordinates from ORCA-job a E -1227.753908220132
  S       4.742814      9.205009      8.412670
  F       1.292134      6.464682      6.982162
  O       2.616951      8.318794      3.474157
  O      -2.747357      5.335729      4.783315
  C       0.510737      6.570383      5.877351
  C      -0.698819      5.904363      5.941958
  H      -0.943018      5.371934      6.848744
  C      -1.546111      5.942934      4.836523
  C      -1.150552      6.645888      3.690036
  H      -1.815439      6.671212      2.836914
  C       0.065387      7.282904      3.666609
  H       0.379797      7.822037      2.784075
  C       0.949409      7.281380      4.762328
  C       2.239860      8.011703      4.608674
  C       3.019868      8.379131      5.793048
  H       2.630494      8.137184      6.769527
  C       4.193875      9.028437      5.660520
  H       4.544571      9.253463      4.658440
  C       5.056312      9.468532      6.712146
  C       6.240400     10.153077      6.550841
  H       6.619114     10.414514      5.570922
  C       6.902989     10.471349      7.763235
  C       6.204565     10.012801      8.846854
  H       6.465118     10.099217      9.890615
  C      -3.190459      4.592986      5.929839
  H      -4.162193      4.191498      5.657296
  H      -3.285735      5.248672      6.796829
  H      -2.497800      3.779012      6.149082
  C       8.192555     11.229273      7.843680
  H       8.909361     10.860586      7.107446
  H       8.640293     11.144536      8.833625
  H       8.033879     12.291277      7.637642
32
Coordinates from ORCA-job a E -1227.754133677883
  S       4.663039      9.322325      8.406776
  F       1.395658      6.316404      6.886991
  O       2.667135      8.220714      3.447276
  O      -2.771749      5.397666      4.825325
  C       0.557689      6.502746      5.835885
  C      -0.658933      5.851386      5.916486
  H      -0.868801      5.262324      6.796596
  C      -1.555909      5.977653      4.859363
  C      -1.201061      6.746043      3.741756
  H      -1.907467      6.840206      2.927738
  C       0.026900      7.357429      3.695501
  H       0.312472      7.940971      2.831054
  C       0.957892      7.271610      4.747278
  C       2.262317      7.971880      4.585233
  C       3.016163      8.384647      5.773471
  H       2.584429      8.210280      6.747391
  C       4.210858      8.993310      5.651402
  H       4.604552      9.148004      4.651553
  C       5.047031      9.473163      6.708597
  C       6.257886     10.108494      6.553809
  H       6.681559     10.296205      5.575244
  C       6.883027     10.485907      7.769685
  C       6.127570     10.121073      8.849065
  H       6.341734     10.268011      9.896581
  C      -3.168976      4.579544      5.936169
  H      -4.158434      4.206809      5.688569
  H      -3.210251      5.173912      6.850630
  H      -2.475969      3.745929      6.061449
  C       8.192800     11.208435      7.853085
  H       8.941699     10.734722      7.215109
  H       8.569972     11.223338      8.875293
  H       8.088170     12.243362      7.516740
32
Coordinates from ORCA-job a E -1227.754228828450
  S       4.653077      9.320546      8.396679
  F       1.406712      6.324625      6.878262
  O       2.661963      8.226526      3.431242
  O      -2.770858      5.399876      4.836212
  C       0.564495      6.505455      5.829393
  C      -0.652416      5.854514      5.917051
  H      -0.860995      5.265764      6.797276
  C      -1.553571      5.978566      4.862415
  C      -1.202908      6.742643      3.739293
  H      -1.911517      6.835262      2.927216
  C       0.025581      7.354813      3.686070
  H       0.305179      7.935023      2.817445
  C       0.959509      7.271202      4.736066
  C       2.263121      7.971438      4.570176
  C       3.016813      8.384595      5.759256
  H       2.582258      8.209691      6.732237
  C       4.212902      8.992323      5.641868
  H       4.608365      9.147280      4.642589
  C       5.046424      9.472263      6.702260
  C       6.256521     10.112373      6.552563
  H       6.684429     10.305752      5.577185
  C       6.877503     10.483636      7.773929
  C       6.117896     10.109166      8.849489
  H       6.334217     10.251848      9.897093
  C      -3.161710      4.586193      5.951206
  H      -4.154455      4.215622      5.713426
  H      -3.194950      5.180687      6.866104
  H      -2.471755      3.749408      6.074326
  C       8.188111     11.206195      7.865873
  H       8.940351     10.730421      7.233577
  H       8.557360     11.220032      8.891007
  H       8.085349     12.240762      7.528318
32
Coordinates from ORCA-job a E -1227.754282083019
  S       4.651376      9.311858      8.390781
  F       1.418229      6.311759      6.868959
  O       2.662356      8.223626      3.423372
  O      -2.772668      5.406144      4.843191
  C       0.570653      6.500494      5.825685
  C      -0.647813      5.852261      5.916787
  H      -0.854942      5.258288      6.793453
  C      -1.553599      5.982498      4.865185
  C      -1.206548      6.749418      3.741965
  H      -1.917709      6.846578      2.932793
  C       0.023699      7.360767      3.685650
  H       0.298045      7.943920      2.817593
  C       0.960876      7.270456      4.732468
  C       2.266023      7.967324      4.563539
  C       3.018394      8.381001      5.752542
  H       2.580817      8.206222      6.724344
  C       4.216236      8.988107      5.636454
  H       4.613033      9.141854      4.637537
  C       5.048280      9.468353      6.697875
  C       6.259645     10.109216      6.550232
  H       6.691244     10.304115      5.577055
  C       6.874210     10.483471      7.775072
  C       6.108426     10.109786      8.848956
  H       6.324054     10.258320      9.895826
  C      -3.158615      4.589915      5.957397
  H      -4.154667      4.225060      5.723756
  H      -3.185089      5.178266      6.876484
  H      -2.473353      3.748255      6.073816
  C       8.183906     11.208665      7.872213
  H       8.944769     10.721188      7.259482
  H       8.538440     11.240608      8.902149
  H       8.085290     12.236707      7.514493
32
Coordinates from ORCA-job a E -1227.754307243842
  S       4.646287      9.318626      8.389746
  F       1.427545      6.292496      6.860451
  O       2.669809      8.210533      3.422599
  O      -2.774711      5.412858      4.846262
  C       0.575369      6.491972      5.823090
  C      -0.644573      5.846941      5.915013
  H      -0.850110      5.247042      6.787997
  C      -1.554132      5.986500      4.867151
  C      -1.209656      6.759684      3.747730
  H      -1.923571      6.863977      2.941860
  C       0.022454      7.368246      3.690596
  H       0.294151      7.956720      2.825429
  C       0.962817      7.268135      4.733162
  C       2.270637      7.960145      4.563351
  C       3.019104      8.378213      5.752194
  H       2.577448      8.207710      6.722970
  C       4.218124      8.984167      5.635867
  H       4.617659      9.132877      4.637402
  C       5.047619      9.468388      6.696836
  C       6.259021     10.109796      6.549100
  H       6.692578     10.302338      5.576373
  C       6.871319     10.486539      7.774235
  C       6.104203     10.114764      8.848184
  H       6.320828     10.265614      9.894523
  C      -3.158708      4.590696      5.956796
  H      -4.156639      4.230698      5.723118
  H      -3.181214      5.172453      6.880108
  H      -2.476153      3.745941      6.065877
  C       8.181771     11.209937      7.872316
  H       8.948425     10.708292      7.278359
  H       8.524583     11.261329      8.905415
  H       8.090714     12.230872      7.492994
32
Coordinates from ORCA-job a E -1227.754319167898
  S       4.652118      9.307540      8.389687
  F       1.426372      6.294359      6.862041
  O       2.670026      8.211969      3.423612
  O      -2.773355      5.411028      4.845027
  C       0.575199      6.492617      5.823884
  C      -0.644548      5.847807      5.915430
  H      -0.851741      5.248490      6.788520
  C      -1.553129      5.985775      4.866155
  C      -1.208198      6.757649      3.746825
  H      -1.920849      6.860703      2.939659
  C       0.023890      7.367058      3.690622
  H       0.294758      7.955597      2.825265
  C       0.962938      7.268276      4.733695
  C       2.270924      7.961245      4.564467
  C       3.019452      8.377148      5.753136
  H       2.579161      8.202061      6.723423
  C       4.217168      8.986200      5.635753
  H       4.613927      9.139096      4.636923
  C       5.048006      9.467700      6.696208
  C       6.257014     10.113677      6.548250
  H       6.687691     10.312940      5.575605
  C       6.870718     10.486275      7.773471
  C       6.107767     10.107038      8.847755
  H       6.330533     10.255511      9.893160
  C      -3.159667      4.592326      5.957063
  H      -4.157772      4.233341      5.722221
  H      -3.183309      5.175919      6.879168
  H      -2.478785      3.746702      6.069580
  C       8.179600     11.211677      7.872544
  H       8.952363     10.700604      7.294525
  H       8.512427     11.280036      8.907908
  H       8.092300     12.226138      7.475516
32
Coordinates from ORCA-job a E -1227.754332117586
  S       4.657022      9.300048      8.390472
  F       1.426931      6.291077      6.860740
  O       2.671049      8.210101      3.424780
  O      -2.773440      5.411260      4.844363
  C       0.575338      6.490583      5.823271
  C      -0.644334      5.846223      5.914151
  H      -0.852133      5.246025      6.786584
  C      -1.553242      5.986075      4.865574
  C      -1.208687      6.759417      3.748035
  H      -1.921362      6.864031      2.941067
  C       0.023807      7.368021      3.692288
  H       0.294172      7.957783      2.827494
  C       0.963125      7.267510      4.734168
  C       2.271664      7.960465      4.565672
  C       3.020495      8.375227      5.754361
  H       2.581524      8.196950      6.724607
  C       4.216539      8.987169      5.636238
  H       4.610929      9.143474      4.637021
  C       5.048270      9.467280      6.696290
  C       6.254870     10.117133      6.548251
  H       6.682705     10.321217      5.575280
  C       6.870140     10.487204      7.772889
  C       6.111002     10.102739      8.847435
  H       6.337991     10.250164      9.892099
  C      -3.160604      4.593031      5.956319
  H      -4.159323      4.235563      5.721937
  H      -3.182657      5.176928      6.878299
  H      -2.480619      3.746594      6.068307
  C       8.178121     11.213363      7.872231
  H       8.959027     10.686347      7.319706
  H       8.495817     11.308562      8.910208
  H       8.098863     12.216936      7.446961
32
Coordinates from ORCA-job a E -1227.754337704148
  S       4.662965      9.291375      8.391565
  F       1.423835      6.294956      6.863143
  O       2.668109      8.215146      3.425987
  O      -2.772940      5.408534      4.842428
  C       0.573552      6.492009      5.823989
  C      -0.645553      5.846659      5.913887
  H      -0.854035      5.247987      6.787215
  C      -1.553442      5.984584      4.864361
  C      -1.208107      6.757066      3.746679
  H      -1.919819      6.860344      2.938680
  C       0.023971      7.366276      3.691792
  H       0.295288      7.955042      2.826564
  C       0.962490      7.267884      4.734478
  C       2.270390      7.962547      4.566661
  C       3.021333      8.374320      5.755412
  H       2.585748      8.190858      6.726193
  C       4.215076      8.990116      5.636675
  H       4.606016      9.152282      4.637002
  C       5.048606      9.467472      6.696644
  C       6.252765     10.121307      6.548509
  H       6.676686     10.331095      5.574977
  C       6.870888     10.487413      7.772727
  C       6.116109     10.096232      8.847587
  H       6.345989     10.240496      9.892067
  C      -3.161551      4.592866      5.955894
  H      -4.160021      4.234796      5.721684
  H      -3.183892      5.179567      6.876092
  H      -2.481256      3.746981      6.070243
  C       8.178337     11.214182      7.871990
  H       8.965766     10.674154      7.341452
  H       8.483389     11.332054      8.911420
  H       8.106308     12.207902      7.423105
32
Coordinates from ORCA-job a E -1227.754339640359
  S       4.668127      9.285794      8.393019
  F       1.418347      6.301529      6.867880
  O       2.662254      8.225138      3.428254
  O      -2.772196      5.404033      4.839373
  C       0.570412      6.495152      5.825934
  C      -0.647811      5.847751      5.914337
  H      -0.856701      5.251043      6.788883
  C      -1.553867      5.982066      4.862956
  C      -1.207150      6.753060      3.744282
  H      -1.917360      6.853670      2.934635
  C       0.023837      7.364064      3.690878
  H       0.296889      7.951152      2.825047
  C       0.960900      7.269531      4.735701
  C       2.267231      7.967001      4.568481
  C       3.021251      8.375235      5.757144
  H       2.589784      8.186918      6.728840
  C       4.212996      8.994206      5.637749
  H       4.600516      9.161986      4.637609
  C       5.048876      9.468722      6.697520
  C       6.251484     10.124937      6.548767
  H       6.671679     10.338949      5.574505
  C       6.872903     10.487457      7.772591
  C       6.121517     10.091275      8.847950
  H       6.352407     10.232254      9.892651
  C      -3.162148      4.590766      5.954401
  H      -4.159724      4.230694      5.719760
  H      -3.186302      5.180474      6.872620
  H      -2.480644      3.746283      6.071918
  C       8.180916     11.213396      7.870993
  H       8.973211     10.660478      7.361165
  H       8.474667     11.352130      8.911096
  H       8.116697     12.197353      7.400162
32
Coordinates from ORCA-job a E -1227.754338636897
  S       4.669678      9.286621      8.394245
  F       1.413313      6.307827      6.872587
  O       2.656808      8.234888      3.430820
  O      -2.771201      5.399772      4.836634
  C       0.567633      6.498605      5.828200
  C      -0.649746      5.849060      5.915313
  H      -0.858697      5.253545      6.790623
  C      -1.553992      5.979789      4.862008
  C      -1.206192      6.749550      3.742263
  H      -1.915054      6.847411      2.931111
  C       0.023515      7.362864      3.690335
  H       0.297809      7.948807      2.824164
  C       0.959072      7.271926      4.737442
  C       2.263738      7.971987      4.570626
  C       3.019732      8.378100      5.759121
  H       2.590556      8.187911      6.731472
  C       4.211069      8.997610      5.639213
  H       4.597113      9.167394      4.638813
  C       5.048687      9.470582      6.698587
  C       6.251549     10.126123      6.548791
  H       6.670288     10.340669      5.574034
  C       6.875014     10.487167      7.772349
  C       6.124417     10.090542      8.848265
  H       6.354706     10.230001      9.893295
  C      -3.161824      4.587411      5.952266
  H      -4.158195      4.224897      5.716311
  H      -3.188961      5.178557      6.869460
  H      -2.478851      3.744489      6.072381
  C       8.184531     11.210871      7.869442
  H       8.977872     10.650202      7.369746
  H       8.473374     11.359586      8.909539
  H       8.125241     12.189733      7.387643
32
Coordinates from ORCA-job a E -1227.754338448132
  S       4.668485      9.290921      8.394969
  F       1.410943      6.311195      6.874916
  O       2.654071      8.240111      3.432507
  O      -2.770447      5.397483      4.835331
  C       0.566317      6.500714      5.829507
  C      -0.650531      5.849823      5.915980
  H      -0.859290      5.254371      6.791371
  C      -1.553883      5.978743      4.861717
  C      -1.205883      6.748246      3.741585
  H      -1.914178      6.844654      2.929767
  C       0.022998      7.363134      3.690446
  H       0.297510      7.948963      2.824305
  C       0.957796      7.273870      4.738695
  C       2.261522      7.975311      4.572124
  C       3.017849      8.381069      5.760545
  H       2.588743      8.191587      6.733069
  C       4.209919      8.999247      5.640414
  H       4.596266      9.167969      4.639958
  C       5.048188      9.472034      6.699414
  C       6.252248     10.125329      6.548750
  H       6.671488     10.338029      5.573832
  C       6.876186     10.486779      7.772123
  C       6.124627     10.092750      8.848425
  H       6.353929     10.232628      9.893610
  C      -3.160856      4.584460      5.950549
  H      -4.156331      4.220220      5.713364
  H      -3.190322      5.175341      6.867837
  H      -2.476725      3.742610      6.071539
  C       8.187201     11.208129      7.868155
  H       8.979599     10.644071      7.370802
  H       8.475426     11.359087      8.908097
  H       8.130134     12.185623      7.383397
