! cam-B3LYP D3 def2-TZVP(-f) def2/J RIJCOSX tightSCF miniprint nopop noautostart
%maxcore  1000
%pal nprocs   8 end
 %TDDFT NROOTS 150 
end
! CPCM(DMF)
* xyz   0   1
S      4.66848600    9.29091900    8.39496900
F      1.41094400    6.31119300    6.87491600
O      2.65407200    8.24011000    3.43250600
O     -2.77044700    5.39748500    4.83533100
C      0.56631800    6.50071300    5.82950700
C     -0.65053100    5.84982300    5.91598000
H     -0.85929000    5.25437100    6.79137100
C     -1.55388300    5.97874300    4.86171800
C     -1.20588300    6.74824700    3.74158500
H     -1.91417800    6.84465500    2.92976700
C      0.02299800    7.36313300    3.69044600
H      0.29751100    7.94896200    2.82430400
C      0.95779600    7.27386900    4.73869400
C      2.26152300    7.97530900    4.57212300
C      3.01785000    8.38106800    5.76054500
H      2.58874500    8.19158500    6.73306800
C      4.20991900    8.99924600    5.64041400
H      4.59626600    9.16797000    4.63995800
C      5.04818900    9.47203400    6.69941300
C      6.25224700   10.12533000    6.54875000
H      6.67148800   10.33803000    5.57383200
C      6.87618500   10.48677900    7.77212300
C      6.12462700   10.09274800    8.84842500
H      6.35392900   10.23262600    9.89361000
C     -3.16085600    4.58446100    5.95055000
H     -4.15633200    4.22022200    5.71336400
H     -3.19032200    5.17534200    6.86783800
H     -2.47672600    3.74261100    6.07153900
C      8.18720000   11.20813000    7.86815500
H      8.97959800   10.64407400    7.37080100
H      8.47542600   11.35908700    8.90809800
H      8.13013100   12.18562500    7.38339900
 *
